<routes xmlns:xsi="http://www.w3.org/2001/XMLSchema-instance" xsi:noNamespaceSchemaLocation="http://sumo.dlr.de/xsd/routes_file.xsd">
  <vehicle id="Vehicle_1" depart="0.00">
    <route edges="gneE1 gneE2 gneE3 gneE4 gneE5 gneE0"/>
  </vehicle>
  <vehicle id="Vehicle_2" depart="0.00">
    <route edges="-gneE2 -gneE1 -gneE0 -gneE5 -gneE4 -gneE3"/>
  </vehicle>
  <vehicle id="Vehicle_3" depart="0.00">
    <route edges="gneE4 gneE5 gneE0 gneE1 gneE2 gneE3"/>
  </vehicle>
  <vehicle id="Vehicle_4" depart="0.00">
    <route edges="-gneE5 -gneE4 -gneE3 -gneE2 -gneE1 -gneE0"/>
  </vehicle>
</routes>
